
title                           = california

AXISYM                          = .false.


SIMULATION_TYPE                 = 1   
NOISE_TOMOGRAPHY                = 0   
SAVE_FORWARD                    = .false.  

UNDO_ATTENUATION                = .false.
NT_DUMP_ATTENUATION             = 500

nproc                           = 1              
partitioning_method             = 3              
PERFORM_CUTHILL_MCKEE           = .false.        

ngnod                           = 4              
initialfield                    = .false.        
add_Bielak_conditions           = .false.        

MODEL                           = gll #default

ATTENUATION_VISCOELASTIC_SOLID  = .false.        
ATTENUATION_PORO_FLUID_PART     = .false.        
Q0                              =  1             
freq0                           =  10            
p_sv                            = .true.


nt                              = 2400           
deltat                          = 5.0d-5
USER_T0                         = 0.0d0         
time_stepping_scheme            = 1   

ACOUSTIC_FORCING                = .false.


NSOURCES                        = 1              
force_normal_to_surface         = .false.        


N_SLS                           = 2                      
f0_attenuation                  = 5.196152422706633      
READ_VELOCITIES_AT_f0           = .false.


seismotype                      = 1              
USE_TRICK_FOR_BETTER_PRESSURE   = .false.
NSTEP_BETWEEN_OUTPUT_SEISMOS    = 5000000        
save_ASCII_seismograms          = .false.        
save_binary_seismograms_single  = .true.         
save_binary_seismograms_double  = .false.        
SU_FORMAT                       = .true.        
subsamp_seismos                 = 1              
use_existing_STATIONS           = .false.
nreceiversets                   = 1
anglerec                        = 0.d0           
rec_normal_to_surface           = .false.        
save_ASCII_kernels              = .false.


nrec                            =  10 
xdeb                            =  0.02d3
zdeb                            =  0.2d3
xfin                            =  0.38d3
zfin                            =  0.2d3
enreg_surf_same_vertical        = .false.         


NSTEP_BETWEEN_OUTPUT_INFO       = 400            

NSTEP_BETWEEN_OUTPUT_IMAGES     = 100            
cutsnaps                        = 1.             


output_color_image              = .true.
imagetype_JPEG                  = 3              
factor_subsample_image          = 1              
USE_CONSTANT_MAX_AMPLITUDE      = .false.
CONSTANT_MAX_AMPLITUDE_TO_USE   = 1.17d4
POWER_DISPLAY_COLOR             = 0.30d0         
DRAW_SOURCES_AND_RECEIVERS      = .true.         
DRAW_WATER_IN_BLUE              = .true.         
USE_SNAPSHOT_NUMBER_IN_FILENAME = .false.        


output_postscript_snapshot      = .false.         
imagetype_postscript            = 1              
meshvect                        = .false.        
modelvect                       = .false.        
boundvect                       = .true.         
interpol                        = .true.         
pointsdisp                      = 6              
subsamp_postscript              = 1              
sizemax_arrows                  = 1.d0           
US_LETTER                       = .false.        


NSTEP_BETWEEN_OUTPUT_WAVE_DUMPS = 100            
output_wavefield_dumps          = .false.        
imagetype_wavefield_dumps       = 1              
use_binary_for_wavefield_dumps  = .false.        

output_grid_Gnuplot             = .false.        
output_grid_ASCII               = .false.        
output_energy                   = .false.        


nbmodels                        = 2






1 1 2300.d0 4300.d0 2300.0d0 0 0 10.d0 10.d0 0 0 0 0 0 0
2 1 1.3d0 0300.d0  0000.d0 0 0 100.d0 100.d0 0 0 0 0 0 0


TOMOGRAPHY_FILE                 = none

read_external_mesh              = .false.


PML_BOUNDARY_CONDITIONS         = .false.
NELEM_PML_THICKNESS             = 3
ROTATE_PML_ACTIVATE             = .false.
ROTATE_PML_ANGLE                = 30.
STACEY_ABSORBING_CONDITIONS     = .true.
ADD_SPRING_TO_STACEY            = .false.


ADD_PERIODIC_CONDITIONS         = .false.


PERIODIC_HORIZ_DIST             = 0.3597d0


PERIODIC_DETECT_TOL             = 3.3334d-6

GPU_MODE                        = .false.






mesh_file                       = ./DATA/Mesh_canyon/canyon_mesh_file
nodes_coords_file               = ./DATA/Mesh_canyon/canyon_nodes_coords_file
materials_file                  = ./DATA/Mesh_canyon/canyon_materials_file
free_surface_file               = ./DATA/Mesh_canyon/canyon_free_surface_file
absorbing_surface_file          = ./DATA/Mesh_canyon/canyon_absorbing_surface_file
CPML_element_file               = EltPML_xxxxxx
tangential_detection_curve_file = ./DATA/courbe_eros_nodes





interfacesfile                  = interfaces.dat


xmin                            = 0.d0      
xmax                            = 400.d0      
nx                              = 80             


absorbbottom                    = .false.
absorbright                     = .false.
absorbtop                       = .false.
absorbleft                      = .false.


nbregions                       = 2
1 80  1 40 1
20 60 20 20 2
