
title                           = california

AXISYM                          = .false.
P_SV                            = .true.
GPU_MODE                        = .false.


SIMULATION_TYPE                 = 1   
NOISE_TOMOGRAPHY                = 0   
SAVE_FORWARD                    = .false.  

UNDO_ATTENUATION                = .false.
NT_DUMP_ATTENUATION             = 500

NPROC                           = 4              
partitioning_method             = 3              

ngnod                           = 4              
initialfield                    = .false.        
add_Bielak_conditions_bottom    = .false.        # add Bielak conditions or not if initial plane wave
add_Bielak_conditions_right     = .false.
add_Bielak_conditions_top       = .false.
add_Bielak_conditions_left      = .false.

setup_with_binary_database      = 0
MODEL                           = default
SAVE_MODEL                      = binary #default/.false./binary

ATTENUATION_VISCOELASTIC        = .false.        # turn attenuation (viscoelasticity) on or off for non-poroelastic solid parts of the model
ATTENUATION_VISCOACOUSTIC       = .false.        # turn attenuation (viscoacousticity) on or off for non-poroelastic fluid parts of the model
ATTENUATION_PORO_FLUID_PART     = .false.        # turn viscous attenuation on or off for the fluid part of poroelastic parts of the model
Q0                              =  1             
freq0                           =  10            


NSTEP                           = 2400           
DT                              = 5.0d-5
USER_T0                         = 0.0d0         
time_stepping_scheme            = 1   

ACOUSTIC_FORCING                = .false.


NSOURCES                        = 1              
force_normal_to_surface         = .false.        


N_SLS                           = 2                      
f0_attenuation                  = 5.196152422706633      
READ_VELOCITIES_AT_f0           = .false.


seismotype                      = 1              
subsamp_seismos                 = 1              # subsampling of the seismograms to create smaller files (but less accurately sampled in time)
USE_TRICK_FOR_BETTER_PRESSURE   = .false.
save_ASCII_seismograms          = .false.        
save_binary_seismograms_single  = .true.         
save_binary_seismograms_double  = .false.        
SU_FORMAT                       = .true.        
use_existing_STATIONS           = .false.
save_ASCII_kernels              = .false.

nreceiversets                   = 1
anglerec                        = 0.d0           
rec_normal_to_surface           = .false.        


nrec                            =  10 
xdeb                            =  0.02d3
zdeb                            =  0.2d3
xfin                            =  0.38d3
zfin                            =  0.2d3
record_at_surface_same_vertical = .false.        # receivers inside the medium or at the surface


NSTEP_BETWEEN_OUTPUT_INFO       = 400            
NSTEP_BETWEEN_OUTPUT_IMAGES     = 100            
cutsnaps                        = 1.             


output_color_image              = .true.
imagetype_JPEG                  = 3              
factor_subsample_image          = 1              
USE_CONSTANT_MAX_AMPLITUDE      = .false.
CONSTANT_MAX_AMPLITUDE_TO_USE   = 1.17d4
POWER_DISPLAY_COLOR             = 0.30d0         
DRAW_SOURCES_AND_RECEIVERS      = .true.         
DRAW_WATER_IN_BLUE              = .true.         
USE_SNAPSHOT_NUMBER_IN_FILENAME = .false.        


output_postscript_snapshot      = .false.         
imagetype_postscript            = 1              
meshvect                        = .false.        
modelvect                       = .false.        
boundvect                       = .true.         
interpol                        = .true.         
pointsdisp                      = 6              
subsamp_postscript              = 1              
sizemax_arrows                  = 1.d0           
US_LETTER                       = .false.        


NSTEP_BETWEEN_OUTPUT_WAVE_DUMPS = 100            
output_wavefield_dumps          = .false.        
imagetype_wavefield_dumps       = 1              
use_binary_for_wavefield_dumps  = .false.        

output_grid_Gnuplot             = .false.        
output_grid_ASCII               = .false.        
OUTPUT_ENERGY                   = .false.        
NTSTEP_BETWEEN_OUTPUT_ENERGY    = 1000
COMPUTE_INTEGRATED_ENERGY_FIELD = .false.


nbmodels                        = 3






#1 1 2300.d0 4300.d0 2300.0d0 0 0 10.d0 10.d0 0 0 0 0 0 0
1 1 2300.d0 3600.d0 1900.0d0 0 0 10.d0 10.d0 0 0 0 0 0 0
2 1 2600.d0 5100.d0 2900.0d0 0 0 10.d0 10.d0 0 0 0 0 0 0
3 1 1.3d0 0300.d0  0000.d0 0 0 100.d0 100.d0 0 0 0 0 0 0


TOMOGRAPHY_FILE                 = none

read_external_mesh              = .false.


PML_BOUNDARY_CONDITIONS         = .false.
NELEM_PML_THICKNESS             = 3
ROTATE_PML_ACTIVATE             = .false.
ROTATE_PML_ANGLE                = 30.
STACEY_ABSORBING_CONDITIONS     = .true.
ADD_SPRING_TO_STACEY            = .false.


ADD_PERIODIC_CONDITIONS         = .false.


PERIODIC_HORIZ_DIST             = 0.3597d0


PERIODIC_DETECT_TOL             = 3.3334d-6

GPU_MODE                        = .false.






mesh_file                       = ./DATA/Mesh_canyon/canyon_mesh_file
nodes_coords_file               = ./DATA/Mesh_canyon/canyon_nodes_coords_file
materials_file                  = ./DATA/Mesh_canyon/canyon_materials_file
free_surface_file               = ./DATA/Mesh_canyon/canyon_free_surface_file
absorbing_surface_file          = ./DATA/Mesh_canyon/canyon_absorbing_surface_file
CPML_element_file               = EltPML_xxxxxx
tangential_detection_curve_file = ./DATA/courbe_eros_nodes





interfacesfile                  = interfaces.dat


xmin                            = 0.d0      
xmax                            = 0.4d3      
nx                              = 80             

NUMBER_OF_SIMULTANEOUS_RUNS     = 1
BROADCAST_SAME_MESH_AND_MODEL   = .true.

absorbbottom                    = .false.
absorbright                     = .false.
absorbtop                       = .false.
absorbleft                      = .false.


nbregions                       = 4
1 80  1 40 1
1 80  16 25 2
41 80  26 30 2
20 60 15 15 3
